<edges><edge id="gneE0" from="A" to="C" priority="1" numLanes="1" speed="13.89" /><edge id="-gneE0" from="C" to="A" priority="1" numLanes="1" speed="13.89" /><edge id="gneE1" from="C" to="F" priority="1" numLanes="1" speed="13.89" /><edge id="-gneE1" from="F" to="C" priority="1" numLanes="1" speed="13.89" /><edge id="gneE2" from="F" to="I" priority="1" numLanes="1" speed="13.89" /><edge id="-gneE2" from="I" to="F" priority="1" numLanes="1" speed="13.89" /><edge id="gneE3" from="I" to="L" priority="1" numLanes="1" speed="13.89" /><edge id="-gneE3" from="L" to="I" priority="1" numLanes="1" speed="13.89" /><edge id="gneE4" from="L" to="N" priority="1" numLanes="1" speed="13.89" /><edge id="-gneE4" from="N" to="L" priority="1" numLanes="1" speed="13.89" /><edge id="gneE5" from="B" to="C" priority="1" numLanes="1" speed="13.89" /><edge id="-gneE5" from="C" to="B" priority="1" numLanes="1" speed="13.89" /><edge id="gneE6" from="B" to="E" priority="1" numLanes="1" speed="13.89" /><edge id="-gneE6" from="E" to="B" priority="1" numLanes="1" speed="13.89" /><edge id="gneE7" from="E" to="H" priority="1" numLanes="1" speed="13.89" /><edge id="-gneE7" from="H" to="E" priority="1" numLanes="1" speed="13.89" /><edge id="gneE8" from="H" to="K" priority="1" numLanes="1" speed="13.89" /><edge id="-gneE8" from="K" to="H" priority="1" numLanes="1" speed="13.89" /><edge id="gneE9" from="K" to="L" priority="1" numLanes="1" speed="13.89" /><edge id="-gneE9" from="L" to="K" priority="1" numLanes="1" speed="13.89" /><edge id="gneE10" from="C" to="D" priority="1" numLanes="1" speed="13.89" /><edge id="-gneE10" from="D" to="C" priority="1" numLanes="1" speed="13.89" /><edge id="gneE11" from="D" to="G" priority="1" numLanes="1" speed="13.89" /><edge id="-gneE11" from="G" to="D" priority="1" numLanes="1" speed="13.89" /><edge id="gneE12" from="G" to="J" priority="1" numLanes="1" speed="13.89" /><edge id="-gneE12" from="J" to="G" priority="1" numLanes="1" speed="13.89" /><edge id="gneE13" from="J" to="M" priority="1" numLanes="1" speed="13.89" /><edge id="-gneE13" from="M" to="J" priority="1" numLanes="1" speed="13.89" /><edge id="gneE14" from="L" to="M" priority="1" numLanes="1" speed="13.89" /><edge id="-gneE14" from="M" to="L" priority="1" numLanes="1" speed="13.89" /><edge id="gneE15" from="E" to="F" priority="1" numLanes="1" speed="13.89" /><edge id="-gneE15" from="F" to="E" priority="1" numLanes="1" speed="13.89" /><edge id="gneE16" from="F" to="G" priority="1" numLanes="1" speed="13.89" /><edge id="-gneE16" from="G" to="F" priority="1" numLanes="1" speed="13.89" /><edge id="gneE17" from="H" to="I" priority="1" numLanes="1" speed="13.89" /><edge id="-gneE17" from="I" to="H" priority="1" numLanes="1" speed="13.89" /><edge id="gneE18" from="I" to="J" priority="1" numLanes="1" speed="13.89" /><edge id="-gneE18" from="J" to="I" priority="1" numLanes="1" speed="13.89" /></edges>