<?xml version="1.0" encoding="UTF-8"?>

<!-- generated on 2023-05-03 20:34:12 by Eclipse SUMO netconvert Version 1.15.0
<configuration xmlns:xsi="http://www.w3.org/2001/XMLSchema-instance" xsi:noNamespaceSchemaLocation="http://sumo.dlr.de/xsd/netconvertConfiguration.xsd">

    <input>
        <node-files value="nodes.nod.xml"/>
        <edge-files value="edges.edg.xml"/>
    </input>

    <output>
        <output-file value="network.net.xml"/>
    </output>

</configuration>
-->

<net version="1.9" junctionCornerDetail="5" limitTurnSpeed="5.50" xmlns:xsi="http://www.w3.org/2001/XMLSchema-instance" xsi:noNamespaceSchemaLocation="http://sumo.dlr.de/xsd/net_file.xsd">

    <location netOffset="0.00,100.00" convBoundary="0.00,0.00,500.00,200.00" origBoundary="0.00,-100.00,500.00,100.00" projParameter="!"/>

    <edge id=":A_0" function="internal">
        <lane id=":A_0_0" index="0" speed="3.65" length="4.67" shape="0.00,101.60 -1.20,100.80 -1.60,100.00 -1.20,99.20 0.00,98.40"/>
    </edge>
    <edge id=":B_0" function="internal">
        <lane id=":B_0_0" index="0" speed="6.08" length="7.74" shape="103.20,201.60 101.10,201.30 99.60,200.40 98.70,198.90 98.40,196.80"/>
    </edge>
    <edge id=":B_1" function="internal">
        <lane id=":B_1_0" index="0" speed="3.90" length="2.58" shape="101.60,196.80 101.70,197.50 102.00,198.00 102.50,198.30 103.20,198.40"/>
    </edge>
    <edge id=":C_0" function="internal">
        <lane id=":C_0_0" index="0" speed="6.51" length="9.03" shape="98.40,107.20 98.05,104.75 97.00,103.00 95.25,101.95 92.80,101.60"/>
    </edge>
    <edge id=":C_1" function="internal">
        <lane id=":C_1_0" index="0" speed="13.89" length="14.40" shape="98.40,107.20 98.40,92.80"/>
    </edge>
    <edge id=":C_2" function="internal">
        <lane id=":C_2_0" index="0" speed="8.00" length="4.07" shape="98.40,107.20 98.95,103.35 99.04,103.20"/>
    </edge>
    <edge id=":C_3" function="internal">
        <lane id=":C_3_0" index="0" speed="3.65" length="1.44" shape="98.40,107.20 99.20,106.00"/>
    </edge>
    <edge id=":C_16" function="internal">
        <lane id=":C_16_0" index="0" speed="8.00" length="10.13" shape="99.04,103.20 100.60,100.60 103.35,98.95 107.20,98.40"/>
    </edge>
    <edge id=":C_17" function="internal">
        <lane id=":C_17_0" index="0" speed="3.65" length="3.23" shape="99.20,106.00 100.00,105.60 100.80,106.00 101.60,107.20"/>
    </edge>
    <edge id=":C_4" function="internal">
        <lane id=":C_4_0" index="0" speed="6.51" length="9.03" shape="107.20,101.60 104.75,101.95 103.00,103.00 101.95,104.75 101.60,107.20"/>
    </edge>
    <edge id=":C_5" function="internal">
        <lane id=":C_5_0" index="0" speed="13.89" length="14.40" shape="107.20,101.60 92.80,101.60"/>
    </edge>
    <edge id=":C_6" function="internal">
        <lane id=":C_6_0" index="0" speed="8.00" length="14.19" shape="107.20,101.60 103.35,101.05 100.60,99.40 98.95,96.65 98.40,92.80"/>
    </edge>
    <edge id=":C_7" function="internal">
        <lane id=":C_7_0" index="0" speed="3.65" length="4.67" shape="107.20,101.60 106.00,100.80 105.60,100.00 106.00,99.20 107.20,98.40"/>
    </edge>
    <edge id=":C_8" function="internal">
        <lane id=":C_8_0" index="0" speed="6.51" length="9.03" shape="101.60,92.80 101.95,95.25 103.00,97.00 104.75,98.05 107.20,98.40"/>
    </edge>
    <edge id=":C_9" function="internal">
        <lane id=":C_9_0" index="0" speed="13.89" length="14.40" shape="101.60,92.80 101.60,107.20"/>
    </edge>
    <edge id=":C_10" function="internal">
        <lane id=":C_10_0" index="0" speed="8.00" length="4.07" shape="101.60,92.80 101.05,96.65 100.96,96.80"/>
    </edge>
    <edge id=":C_11" function="internal">
        <lane id=":C_11_0" index="0" speed="3.65" length="1.44" shape="101.60,92.80 100.80,94.00"/>
    </edge>
    <edge id=":C_18" function="internal">
        <lane id=":C_18_0" index="0" speed="8.00" length="10.13" shape="100.96,96.80 99.40,99.40 96.65,101.05 92.80,101.60"/>
    </edge>
    <edge id=":C_19" function="internal">
        <lane id=":C_19_0" index="0" speed="3.65" length="3.23" shape="100.80,94.00 100.00,94.40 99.20,94.00 98.40,92.80"/>
    </edge>
    <edge id=":C_12" function="internal">
        <lane id=":C_12_0" index="0" speed="6.51" length="9.03" shape="92.80,98.40 95.25,98.05 97.00,97.00 98.05,95.25 98.40,92.80"/>
    </edge>
    <edge id=":C_13" function="internal">
        <lane id=":C_13_0" index="0" speed="13.89" length="14.40" shape="92.80,98.40 107.20,98.40"/>
    </edge>
    <edge id=":C_14" function="internal">
        <lane id=":C_14_0" index="0" speed="8.00" length="14.19" shape="92.80,98.40 96.65,98.95 99.40,100.60 101.05,103.35 101.60,107.20"/>
    </edge>
    <edge id=":C_15" function="internal">
        <lane id=":C_15_0" index="0" speed="3.65" length="4.67" shape="92.80,98.40 94.00,99.20 94.40,100.00 94.00,100.80 92.80,101.60"/>
    </edge>
    <edge id=":D_0" function="internal">
        <lane id=":D_0_0" index="0" speed="6.08" length="7.74" shape="98.40,3.20 98.70,1.10 99.60,-0.40 101.10,-1.30 103.20,-1.60"/>
    </edge>
    <edge id=":D_1" function="internal">
        <lane id=":D_1_0" index="0" speed="3.90" length="2.58" shape="103.20,1.60 102.50,1.70 102.00,2.00 101.70,2.50 101.60,3.20"/>
    </edge>
    <edge id=":E_0" function="internal">
        <lane id=":E_0_0" index="0" speed="13.89" length="14.40" shape="207.20,201.60 192.80,201.60"/>
    </edge>
    <edge id=":E_1" function="internal">
        <lane id=":E_1_0" index="0" speed="8.00" length="4.07" shape="207.20,201.60 203.35,201.05 203.20,200.96"/>
    </edge>
    <edge id=":E_2" function="internal">
        <lane id=":E_2_0" index="0" speed="3.65" length="1.44" shape="207.20,201.60 206.00,200.80"/>
    </edge>
    <edge id=":E_9" function="internal">
        <lane id=":E_9_0" index="0" speed="8.00" length="10.13" shape="203.20,200.96 200.60,199.40 198.95,196.65 198.40,192.80"/>
    </edge>
    <edge id=":E_10" function="internal">
        <lane id=":E_10_0" index="0" speed="3.65" length="3.23" shape="206.00,200.80 205.60,200.00 206.00,199.20 207.20,198.40"/>
    </edge>
    <edge id=":E_3" function="internal">
        <lane id=":E_3_0" index="0" speed="6.51" length="9.03" shape="201.60,192.80 201.95,195.25 203.00,197.00 204.75,198.05 207.20,198.40"/>
    </edge>
    <edge id=":E_4" function="internal">
        <lane id=":E_4_0" index="0" speed="8.00" length="14.19" shape="201.60,192.80 201.05,196.65 199.40,199.40 196.65,201.05 192.80,201.60"/>
    </edge>
    <edge id=":E_5" function="internal">
        <lane id=":E_5_0" index="0" speed="3.65" length="4.67" shape="201.60,192.80 200.80,194.00 200.00,194.40 199.20,194.00 198.40,192.80"/>
    </edge>
    <edge id=":E_6" function="internal">
        <lane id=":E_6_0" index="0" speed="6.51" length="9.03" shape="192.80,198.40 195.25,198.05 197.00,197.00 198.05,195.25 198.40,192.80"/>
    </edge>
    <edge id=":E_7" function="internal">
        <lane id=":E_7_0" index="0" speed="13.89" length="14.40" shape="192.80,198.40 207.20,198.40"/>
    </edge>
    <edge id=":E_8" function="internal">
        <lane id=":E_8_0" index="0" speed="3.65" length="1.44" shape="192.80,198.40 194.00,199.20"/>
    </edge>
    <edge id=":E_11" function="internal">
        <lane id=":E_11_0" index="0" speed="3.65" length="3.23" shape="194.00,199.20 194.40,200.00 194.00,200.80 192.80,201.60"/>
    </edge>
    <edge id=":F_0" function="internal">
        <lane id=":F_0_0" index="0" speed="6.51" length="9.03" shape="198.40,107.20 198.05,104.75 197.00,103.00 195.25,101.95 192.80,101.60"/>
    </edge>
    <edge id=":F_1" function="internal">
        <lane id=":F_1_0" index="0" speed="13.89" length="14.40" shape="198.40,107.20 198.40,92.80"/>
    </edge>
    <edge id=":F_2" function="internal">
        <lane id=":F_2_0" index="0" speed="8.00" length="4.07" shape="198.40,107.20 198.95,103.35 199.04,103.20"/>
    </edge>
    <edge id=":F_3" function="internal">
        <lane id=":F_3_0" index="0" speed="3.65" length="1.44" shape="198.40,107.20 199.20,106.00"/>
    </edge>
    <edge id=":F_16" function="internal">
        <lane id=":F_16_0" index="0" speed="8.00" length="10.13" shape="199.04,103.20 200.60,100.60 203.35,98.95 207.20,98.40"/>
    </edge>
    <edge id=":F_17" function="internal">
        <lane id=":F_17_0" index="0" speed="3.65" length="3.23" shape="199.20,106.00 200.00,105.60 200.80,106.00 201.60,107.20"/>
    </edge>
    <edge id=":F_4" function="internal">
        <lane id=":F_4_0" index="0" speed="6.51" length="9.03" shape="207.20,101.60 204.75,101.95 203.00,103.00 201.95,104.75 201.60,107.20"/>
    </edge>
    <edge id=":F_5" function="internal">
        <lane id=":F_5_0" index="0" speed="13.89" length="14.40" shape="207.20,101.60 192.80,101.60"/>
    </edge>
    <edge id=":F_6" function="internal">
        <lane id=":F_6_0" index="0" speed="8.00" length="14.19" shape="207.20,101.60 203.35,101.05 200.60,99.40 198.95,96.65 198.40,92.80"/>
    </edge>
    <edge id=":F_7" function="internal">
        <lane id=":F_7_0" index="0" speed="3.65" length="4.67" shape="207.20,101.60 206.00,100.80 205.60,100.00 206.00,99.20 207.20,98.40"/>
    </edge>
    <edge id=":F_8" function="internal">
        <lane id=":F_8_0" index="0" speed="6.51" length="9.03" shape="201.60,92.80 201.95,95.25 203.00,97.00 204.75,98.05 207.20,98.40"/>
    </edge>
    <edge id=":F_9" function="internal">
        <lane id=":F_9_0" index="0" speed="13.89" length="14.40" shape="201.60,92.80 201.60,107.20"/>
    </edge>
    <edge id=":F_10" function="internal">
        <lane id=":F_10_0" index="0" speed="8.00" length="4.07" shape="201.60,92.80 201.05,96.65 200.96,96.80"/>
    </edge>
    <edge id=":F_11" function="internal">
        <lane id=":F_11_0" index="0" speed="3.65" length="1.44" shape="201.60,92.80 200.80,94.00"/>
    </edge>
    <edge id=":F_18" function="internal">
        <lane id=":F_18_0" index="0" speed="8.00" length="10.13" shape="200.96,96.80 199.40,99.40 196.65,101.05 192.80,101.60"/>
    </edge>
    <edge id=":F_19" function="internal">
        <lane id=":F_19_0" index="0" speed="3.65" length="3.23" shape="200.80,94.00 200.00,94.40 199.20,94.00 198.40,92.80"/>
    </edge>
    <edge id=":F_12" function="internal">
        <lane id=":F_12_0" index="0" speed="6.51" length="9.03" shape="192.80,98.40 195.25,98.05 197.00,97.00 198.05,95.25 198.40,92.80"/>
    </edge>
    <edge id=":F_13" function="internal">
        <lane id=":F_13_0" index="0" speed="13.89" length="14.40" shape="192.80,98.40 207.20,98.40"/>
    </edge>
    <edge id=":F_14" function="internal">
        <lane id=":F_14_0" index="0" speed="8.00" length="14.19" shape="192.80,98.40 196.65,98.95 199.40,100.60 201.05,103.35 201.60,107.20"/>
    </edge>
    <edge id=":F_15" function="internal">
        <lane id=":F_15_0" index="0" speed="3.65" length="4.67" shape="192.80,98.40 194.00,99.20 194.40,100.00 194.00,100.80 192.80,101.60"/>
    </edge>
    <edge id=":G_0" function="internal">
        <lane id=":G_0_0" index="0" speed="6.51" length="9.03" shape="198.40,7.20 198.05,4.75 197.00,3.00 195.25,1.95 192.80,1.60"/>
    </edge>
    <edge id=":G_1" function="internal">
        <lane id=":G_1_0" index="0" speed="8.00" length="14.19" shape="198.40,7.20 198.95,3.35 200.60,0.60 203.35,-1.05 207.20,-1.60"/>
    </edge>
    <edge id=":G_2" function="internal">
        <lane id=":G_2_0" index="0" speed="3.65" length="4.67" shape="198.40,7.20 199.20,6.00 200.00,5.60 200.80,6.00 201.60,7.20"/>
    </edge>
    <edge id=":G_3" function="internal">
        <lane id=":G_3_0" index="0" speed="6.51" length="9.03" shape="207.20,1.60 204.75,1.95 203.00,3.00 201.95,4.75 201.60,7.20"/>
    </edge>
    <edge id=":G_4" function="internal">
        <lane id=":G_4_0" index="0" speed="13.89" length="14.40" shape="207.20,1.60 192.80,1.60"/>
    </edge>
    <edge id=":G_5" function="internal">
        <lane id=":G_5_0" index="0" speed="3.65" length="1.44" shape="207.20,1.60 206.00,0.80"/>
    </edge>
    <edge id=":G_9" function="internal">
        <lane id=":G_9_0" index="0" speed="3.65" length="3.23" shape="206.00,0.80 205.60,0.00 206.00,-0.80 207.20,-1.60"/>
    </edge>
    <edge id=":G_6" function="internal">
        <lane id=":G_6_0" index="0" speed="13.89" length="14.40" shape="192.80,-1.60 207.20,-1.60"/>
    </edge>
    <edge id=":G_7" function="internal">
        <lane id=":G_7_0" index="0" speed="8.00" length="4.07" shape="192.80,-1.60 196.65,-1.05 196.80,-0.96"/>
    </edge>
    <edge id=":G_8" function="internal">
        <lane id=":G_8_0" index="0" speed="3.65" length="1.44" shape="192.80,-1.60 194.00,-0.80"/>
    </edge>
    <edge id=":G_10" function="internal">
        <lane id=":G_10_0" index="0" speed="8.00" length="10.13" shape="196.80,-0.96 199.40,0.60 201.05,3.35 201.60,7.20"/>
    </edge>
    <edge id=":G_11" function="internal">
        <lane id=":G_11_0" index="0" speed="3.65" length="3.23" shape="194.00,-0.80 194.40,0.00 194.00,0.80 192.80,1.60"/>
    </edge>
    <edge id=":H_0" function="internal">
        <lane id=":H_0_0" index="0" speed="13.89" length="14.40" shape="307.20,201.60 292.80,201.60"/>
    </edge>
    <edge id=":H_1" function="internal">
        <lane id=":H_1_0" index="0" speed="8.00" length="4.07" shape="307.20,201.60 303.35,201.05 303.20,200.96"/>
    </edge>
    <edge id=":H_2" function="internal">
        <lane id=":H_2_0" index="0" speed="3.65" length="1.44" shape="307.20,201.60 306.00,200.80"/>
    </edge>
    <edge id=":H_9" function="internal">
        <lane id=":H_9_0" index="0" speed="8.00" length="10.13" shape="303.20,200.96 300.60,199.40 298.95,196.65 298.40,192.80"/>
    </edge>
    <edge id=":H_10" function="internal">
        <lane id=":H_10_0" index="0" speed="3.65" length="3.23" shape="306.00,200.80 305.60,200.00 306.00,199.20 307.20,198.40"/>
    </edge>
    <edge id=":H_3" function="internal">
        <lane id=":H_3_0" index="0" speed="6.51" length="9.03" shape="301.60,192.80 301.95,195.25 303.00,197.00 304.75,198.05 307.20,198.40"/>
    </edge>
    <edge id=":H_4" function="internal">
        <lane id=":H_4_0" index="0" speed="8.00" length="14.19" shape="301.60,192.80 301.05,196.65 299.40,199.40 296.65,201.05 292.80,201.60"/>
    </edge>
    <edge id=":H_5" function="internal">
        <lane id=":H_5_0" index="0" speed="3.65" length="4.67" shape="301.60,192.80 300.80,194.00 300.00,194.40 299.20,194.00 298.40,192.80"/>
    </edge>
    <edge id=":H_6" function="internal">
        <lane id=":H_6_0" index="0" speed="6.51" length="9.03" shape="292.80,198.40 295.25,198.05 297.00,197.00 298.05,195.25 298.40,192.80"/>
    </edge>
    <edge id=":H_7" function="internal">
        <lane id=":H_7_0" index="0" speed="13.89" length="14.40" shape="292.80,198.40 307.20,198.40"/>
    </edge>
    <edge id=":H_8" function="internal">
        <lane id=":H_8_0" index="0" speed="3.65" length="1.44" shape="292.80,198.40 294.00,199.20"/>
    </edge>
    <edge id=":H_11" function="internal">
        <lane id=":H_11_0" index="0" speed="3.65" length="3.23" shape="294.00,199.20 294.40,200.00 294.00,200.80 292.80,201.60"/>
    </edge>
    <edge id=":I_0" function="internal">
        <lane id=":I_0_0" index="0" speed="6.51" length="9.03" shape="298.40,107.20 298.05,104.75 297.00,103.00 295.25,101.95 292.80,101.60"/>
    </edge>
    <edge id=":I_1" function="internal">
        <lane id=":I_1_0" index="0" speed="13.89" length="14.40" shape="298.40,107.20 298.40,92.80"/>
    </edge>
    <edge id=":I_2" function="internal">
        <lane id=":I_2_0" index="0" speed="8.00" length="4.07" shape="298.40,107.20 298.95,103.35 299.04,103.20"/>
    </edge>
    <edge id=":I_3" function="internal">
        <lane id=":I_3_0" index="0" speed="3.65" length="1.44" shape="298.40,107.20 299.20,106.00"/>
    </edge>
    <edge id=":I_16" function="internal">
        <lane id=":I_16_0" index="0" speed="8.00" length="10.13" shape="299.04,103.20 300.60,100.60 303.35,98.95 307.20,98.40"/>
    </edge>
    <edge id=":I_17" function="internal">
        <lane id=":I_17_0" index="0" speed="3.65" length="3.23" shape="299.20,106.00 300.00,105.60 300.80,106.00 301.60,107.20"/>
    </edge>
    <edge id=":I_4" function="internal">
        <lane id=":I_4_0" index="0" speed="6.51" length="9.03" shape="307.20,101.60 304.75,101.95 303.00,103.00 301.95,104.75 301.60,107.20"/>
    </edge>
    <edge id=":I_5" function="internal">
        <lane id=":I_5_0" index="0" speed="13.89" length="14.40" shape="307.20,101.60 292.80,101.60"/>
    </edge>
    <edge id=":I_6" function="internal">
        <lane id=":I_6_0" index="0" speed="8.00" length="14.19" shape="307.20,101.60 303.35,101.05 300.60,99.40 298.95,96.65 298.40,92.80"/>
    </edge>
    <edge id=":I_7" function="internal">
        <lane id=":I_7_0" index="0" speed="3.65" length="4.67" shape="307.20,101.60 306.00,100.80 305.60,100.00 306.00,99.20 307.20,98.40"/>
    </edge>
    <edge id=":I_8" function="internal">
        <lane id=":I_8_0" index="0" speed="6.51" length="9.03" shape="301.60,92.80 301.95,95.25 303.00,97.00 304.75,98.05 307.20,98.40"/>
    </edge>
    <edge id=":I_9" function="internal">
        <lane id=":I_9_0" index="0" speed="13.89" length="14.40" shape="301.60,92.80 301.60,107.20"/>
    </edge>
    <edge id=":I_10" function="internal">
        <lane id=":I_10_0" index="0" speed="8.00" length="4.07" shape="301.60,92.80 301.05,96.65 300.96,96.80"/>
    </edge>
    <edge id=":I_11" function="internal">
        <lane id=":I_11_0" index="0" speed="3.65" length="1.44" shape="301.60,92.80 300.80,94.00"/>
    </edge>
    <edge id=":I_18" function="internal">
        <lane id=":I_18_0" index="0" speed="8.00" length="10.13" shape="300.96,96.80 299.40,99.40 296.65,101.05 292.80,101.60"/>
    </edge>
    <edge id=":I_19" function="internal">
        <lane id=":I_19_0" index="0" speed="3.65" length="3.23" shape="300.80,94.00 300.00,94.40 299.20,94.00 298.40,92.80"/>
    </edge>
    <edge id=":I_12" function="internal">
        <lane id=":I_12_0" index="0" speed="6.51" length="9.03" shape="292.80,98.40 295.25,98.05 297.00,97.00 298.05,95.25 298.40,92.80"/>
    </edge>
    <edge id=":I_13" function="internal">
        <lane id=":I_13_0" index="0" speed="13.89" length="14.40" shape="292.80,98.40 307.20,98.40"/>
    </edge>
    <edge id=":I_14" function="internal">
        <lane id=":I_14_0" index="0" speed="8.00" length="14.19" shape="292.80,98.40 296.65,98.95 299.40,100.60 301.05,103.35 301.60,107.20"/>
    </edge>
    <edge id=":I_15" function="internal">
        <lane id=":I_15_0" index="0" speed="3.65" length="4.67" shape="292.80,98.40 294.00,99.20 294.40,100.00 294.00,100.80 292.80,101.60"/>
    </edge>
    <edge id=":J_0" function="internal">
        <lane id=":J_0_0" index="0" speed="6.51" length="9.03" shape="298.40,7.20 298.05,4.75 297.00,3.00 295.25,1.95 292.80,1.60"/>
    </edge>
    <edge id=":J_1" function="internal">
        <lane id=":J_1_0" index="0" speed="8.00" length="14.19" shape="298.40,7.20 298.95,3.35 300.60,0.60 303.35,-1.05 307.20,-1.60"/>
    </edge>
    <edge id=":J_2" function="internal">
        <lane id=":J_2_0" index="0" speed="3.65" length="4.67" shape="298.40,7.20 299.20,6.00 300.00,5.60 300.80,6.00 301.60,7.20"/>
    </edge>
    <edge id=":J_3" function="internal">
        <lane id=":J_3_0" index="0" speed="6.51" length="9.03" shape="307.20,1.60 304.75,1.95 303.00,3.00 301.95,4.75 301.60,7.20"/>
    </edge>
    <edge id=":J_4" function="internal">
        <lane id=":J_4_0" index="0" speed="13.89" length="14.40" shape="307.20,1.60 292.80,1.60"/>
    </edge>
    <edge id=":J_5" function="internal">
        <lane id=":J_5_0" index="0" speed="3.65" length="1.44" shape="307.20,1.60 306.00,0.80"/>
    </edge>
    <edge id=":J_9" function="internal">
        <lane id=":J_9_0" index="0" speed="3.65" length="3.23" shape="306.00,0.80 305.60,0.00 306.00,-0.80 307.20,-1.60"/>
    </edge>
    <edge id=":J_6" function="internal">
        <lane id=":J_6_0" index="0" speed="13.89" length="14.40" shape="292.80,-1.60 307.20,-1.60"/>
    </edge>
    <edge id=":J_7" function="internal">
        <lane id=":J_7_0" index="0" speed="8.00" length="4.07" shape="292.80,-1.60 296.65,-1.05 296.80,-0.96"/>
    </edge>
    <edge id=":J_8" function="internal">
        <lane id=":J_8_0" index="0" speed="3.65" length="1.44" shape="292.80,-1.60 294.00,-0.80"/>
    </edge>
    <edge id=":J_10" function="internal">
        <lane id=":J_10_0" index="0" speed="8.00" length="10.13" shape="296.80,-0.96 299.40,0.60 301.05,3.35 301.60,7.20"/>
    </edge>
    <edge id=":J_11" function="internal">
        <lane id=":J_11_0" index="0" speed="3.65" length="3.23" shape="294.00,-0.80 294.40,0.00 294.00,0.80 292.80,1.60"/>
    </edge>
    <edge id=":K_0" function="internal">
        <lane id=":K_0_0" index="0" speed="6.08" length="7.74" shape="401.60,196.80 401.30,198.90 400.40,200.40 398.90,201.30 396.80,201.60"/>
    </edge>
    <edge id=":K_1" function="internal">
        <lane id=":K_1_0" index="0" speed="3.90" length="2.58" shape="396.80,198.40 397.50,198.30 398.00,198.00 398.30,197.50 398.40,196.80"/>
    </edge>
    <edge id=":L_0" function="internal">
        <lane id=":L_0_0" index="0" speed="6.51" length="9.03" shape="398.40,107.20 398.05,104.75 397.00,103.00 395.25,101.95 392.80,101.60"/>
    </edge>
    <edge id=":L_1" function="internal">
        <lane id=":L_1_0" index="0" speed="13.89" length="14.40" shape="398.40,107.20 398.40,92.80"/>
    </edge>
    <edge id=":L_2" function="internal">
        <lane id=":L_2_0" index="0" speed="8.00" length="4.07" shape="398.40,107.20 398.95,103.35 399.04,103.20"/>
    </edge>
    <edge id=":L_3" function="internal">
        <lane id=":L_3_0" index="0" speed="3.65" length="1.44" shape="398.40,107.20 399.20,106.00"/>
    </edge>
    <edge id=":L_16" function="internal">
        <lane id=":L_16_0" index="0" speed="8.00" length="10.13" shape="399.04,103.20 400.60,100.60 403.35,98.95 407.20,98.40"/>
    </edge>
    <edge id=":L_17" function="internal">
        <lane id=":L_17_0" index="0" speed="3.65" length="3.23" shape="399.20,106.00 400.00,105.60 400.80,106.00 401.60,107.20"/>
    </edge>
    <edge id=":L_4" function="internal">
        <lane id=":L_4_0" index="0" speed="6.51" length="9.03" shape="407.20,101.60 404.75,101.95 403.00,103.00 401.95,104.75 401.60,107.20"/>
    </edge>
    <edge id=":L_5" function="internal">
        <lane id=":L_5_0" index="0" speed="13.89" length="14.40" shape="407.20,101.60 392.80,101.60"/>
    </edge>
    <edge id=":L_6" function="internal">
        <lane id=":L_6_0" index="0" speed="8.00" length="14.19" shape="407.20,101.60 403.35,101.05 400.60,99.40 398.95,96.65 398.40,92.80"/>
    </edge>
    <edge id=":L_7" function="internal">
        <lane id=":L_7_0" index="0" speed="3.65" length="4.67" shape="407.20,101.60 406.00,100.80 405.60,100.00 406.00,99.20 407.20,98.40"/>
    </edge>
    <edge id=":L_8" function="internal">
        <lane id=":L_8_0" index="0" speed="6.51" length="9.03" shape="401.60,92.80 401.95,95.25 403.00,97.00 404.75,98.05 407.20,98.40"/>
    </edge>
    <edge id=":L_9" function="internal">
        <lane id=":L_9_0" index="0" speed="13.89" length="14.40" shape="401.60,92.80 401.60,107.20"/>
    </edge>
    <edge id=":L_10" function="internal">
        <lane id=":L_10_0" index="0" speed="8.00" length="4.07" shape="401.60,92.80 401.05,96.65 400.96,96.80"/>
    </edge>
    <edge id=":L_11" function="internal">
        <lane id=":L_11_0" index="0" speed="3.65" length="1.44" shape="401.60,92.80 400.80,94.00"/>
    </edge>
    <edge id=":L_18" function="internal">
        <lane id=":L_18_0" index="0" speed="8.00" length="10.13" shape="400.96,96.80 399.40,99.40 396.65,101.05 392.80,101.60"/>
    </edge>
    <edge id=":L_19" function="internal">
        <lane id=":L_19_0" index="0" speed="3.65" length="3.23" shape="400.80,94.00 400.00,94.40 399.20,94.00 398.40,92.80"/>
    </edge>
    <edge id=":L_12" function="internal">
        <lane id=":L_12_0" index="0" speed="6.51" length="9.03" shape="392.80,98.40 395.25,98.05 397.00,97.00 398.05,95.25 398.40,92.80"/>
    </edge>
    <edge id=":L_13" function="internal">
        <lane id=":L_13_0" index="0" speed="13.89" length="14.40" shape="392.80,98.40 407.20,98.40"/>
    </edge>
    <edge id=":L_14" function="internal">
        <lane id=":L_14_0" index="0" speed="8.00" length="14.19" shape="392.80,98.40 396.65,98.95 399.40,100.60 401.05,103.35 401.60,107.20"/>
    </edge>
    <edge id=":L_15" function="internal">
        <lane id=":L_15_0" index="0" speed="3.65" length="4.67" shape="392.80,98.40 394.00,99.20 394.40,100.00 394.00,100.80 392.80,101.60"/>
    </edge>
    <edge id=":M_0" function="internal">
        <lane id=":M_0_0" index="0" speed="3.90" length="2.58" shape="398.40,3.20 398.30,2.50 398.00,2.00 397.50,1.70 396.80,1.60"/>
    </edge>
    <edge id=":M_1" function="internal">
        <lane id=":M_1_0" index="0" speed="6.08" length="7.74" shape="396.80,-1.60 398.90,-1.30 400.40,-0.40 401.30,1.10 401.60,3.20"/>
    </edge>
    <edge id=":N_0" function="internal">
        <lane id=":N_0_0" index="0" speed="3.65" length="4.67" shape="500.00,98.40 501.20,99.20 501.60,100.00 501.20,100.80 500.00,101.60"/>
    </edge>

    <edge id="-gneE0" from="C" to="A" priority="1">
        <lane id="-gneE0_0" index="0" speed="13.89" length="92.80" shape="92.80,101.60 0.00,101.60"/>
    </edge>
    <edge id="-gneE1" from="F" to="C" priority="1">
        <lane id="-gneE1_0" index="0" speed="13.89" length="85.60" shape="192.80,101.60 107.20,101.60"/>
    </edge>
    <edge id="-gneE10" from="D" to="C" priority="1">
        <lane id="-gneE10_0" index="0" speed="13.89" length="89.60" shape="101.60,3.20 101.60,92.80"/>
    </edge>
    <edge id="-gneE11" from="G" to="D" priority="1">
        <lane id="-gneE11_0" index="0" speed="13.89" length="89.60" shape="192.80,1.60 103.20,1.60"/>
    </edge>
    <edge id="-gneE12" from="J" to="G" priority="1">
        <lane id="-gneE12_0" index="0" speed="13.89" length="85.60" shape="292.80,1.60 207.20,1.60"/>
    </edge>
    <edge id="-gneE13" from="M" to="J" priority="1">
        <lane id="-gneE13_0" index="0" speed="13.89" length="89.60" shape="396.80,1.60 307.20,1.60"/>
    </edge>
    <edge id="-gneE14" from="M" to="L" priority="1">
        <lane id="-gneE14_0" index="0" speed="13.89" length="89.60" shape="401.60,3.20 401.60,92.80"/>
    </edge>
    <edge id="-gneE15" from="F" to="E" priority="1">
        <lane id="-gneE15_0" index="0" speed="13.89" length="85.60" shape="201.60,107.20 201.60,192.80"/>
    </edge>
    <edge id="-gneE16" from="G" to="F" priority="1">
        <lane id="-gneE16_0" index="0" speed="13.89" length="85.60" shape="201.60,7.20 201.60,92.80"/>
    </edge>
    <edge id="-gneE17" from="I" to="H" priority="1">
        <lane id="-gneE17_0" index="0" speed="13.89" length="85.60" shape="301.60,107.20 301.60,192.80"/>
    </edge>
    <edge id="-gneE18" from="J" to="I" priority="1">
        <lane id="-gneE18_0" index="0" speed="13.89" length="85.60" shape="301.60,7.20 301.60,92.80"/>
    </edge>
    <edge id="-gneE2" from="I" to="F" priority="1">
        <lane id="-gneE2_0" index="0" speed="13.89" length="85.60" shape="292.80,101.60 207.20,101.60"/>
    </edge>
    <edge id="-gneE3" from="L" to="I" priority="1">
        <lane id="-gneE3_0" index="0" speed="13.89" length="85.60" shape="392.80,101.60 307.20,101.60"/>
    </edge>
    <edge id="-gneE4" from="N" to="L" priority="1">
        <lane id="-gneE4_0" index="0" speed="13.89" length="92.80" shape="500.00,101.60 407.20,101.60"/>
    </edge>
    <edge id="-gneE5" from="C" to="B" priority="1">
        <lane id="-gneE5_0" index="0" speed="13.89" length="89.60" shape="101.60,107.20 101.60,196.80"/>
    </edge>
    <edge id="-gneE6" from="E" to="B" priority="1">
        <lane id="-gneE6_0" index="0" speed="13.89" length="89.60" shape="192.80,201.60 103.20,201.60"/>
    </edge>
    <edge id="-gneE7" from="H" to="E" priority="1">
        <lane id="-gneE7_0" index="0" speed="13.89" length="85.60" shape="292.80,201.60 207.20,201.60"/>
    </edge>
    <edge id="-gneE8" from="K" to="H" priority="1">
        <lane id="-gneE8_0" index="0" speed="13.89" length="89.60" shape="396.80,201.60 307.20,201.60"/>
    </edge>
    <edge id="-gneE9" from="L" to="K" priority="1">
        <lane id="-gneE9_0" index="0" speed="13.89" length="89.60" shape="401.60,107.20 401.60,196.80"/>
    </edge>
    <edge id="gneE0" from="A" to="C" priority="1">
        <lane id="gneE0_0" index="0" speed="13.89" length="92.80" shape="0.00,98.40 92.80,98.40"/>
    </edge>
    <edge id="gneE1" from="C" to="F" priority="1">
        <lane id="gneE1_0" index="0" speed="13.89" length="85.60" shape="107.20,98.40 192.80,98.40"/>
    </edge>
    <edge id="gneE10" from="C" to="D" priority="1">
        <lane id="gneE10_0" index="0" speed="13.89" length="89.60" shape="98.40,92.80 98.40,3.20"/>
    </edge>
    <edge id="gneE11" from="D" to="G" priority="1">
        <lane id="gneE11_0" index="0" speed="13.89" length="89.60" shape="103.20,-1.60 192.80,-1.60"/>
    </edge>
    <edge id="gneE12" from="G" to="J" priority="1">
        <lane id="gneE12_0" index="0" speed="13.89" length="85.60" shape="207.20,-1.60 292.80,-1.60"/>
    </edge>
    <edge id="gneE13" from="J" to="M" priority="1">
        <lane id="gneE13_0" index="0" speed="13.89" length="89.60" shape="307.20,-1.60 396.80,-1.60"/>
    </edge>
    <edge id="gneE14" from="L" to="M" priority="1">
        <lane id="gneE14_0" index="0" speed="13.89" length="89.60" shape="398.40,92.80 398.40,3.20"/>
    </edge>
    <edge id="gneE15" from="E" to="F" priority="1">
        <lane id="gneE15_0" index="0" speed="13.89" length="85.60" shape="198.40,192.80 198.40,107.20"/>
    </edge>
    <edge id="gneE16" from="F" to="G" priority="1">
        <lane id="gneE16_0" index="0" speed="13.89" length="85.60" shape="198.40,92.80 198.40,7.20"/>
    </edge>
    <edge id="gneE17" from="H" to="I" priority="1">