<nodes><node id="A" x="0" y="0" /><node id="B" x="100" y="100" /><node id="C" x="100" y="0" /><node id="D" x="100" y="-100" /><node id="E" x="200" y="100" /><node id="F" x="200" y="0" /><node id="G" x="200" y="-100" /><node id="H" x="300" y="100" /><node id="I" x="300" y="0" /><node id="J" x="300" y="-100" /><node id="K" x="400" y="100" /><node id="L" x="400" y="0" /><node id="M" x="400" y="-100" /><node id="N" x="500" y="0" /></nodes>