<?xml version="1.0" encoding="UTF-8"?>

<!-- generated on 2023-05-07 23:42:38 by Eclipse SUMO duarouter Version 1.15.0
<configuration xmlns:xsi="http://www.w3.org/2001/XMLSchema-instance" xsi:noNamespaceSchemaLocation="http://sumo.dlr.de/xsd/duarouterConfiguration.xsd">

    <input>
        <net-file value="network.net.xml"/>
        <route-files value="route.xml"/>
    </input>

    <output>
        <output-file value="routes.rou.xml"/>
    </output>

</configuration>
-->

<routes xmlns:xsi="http://www.w3.org/2001/XMLSchema-instance" xsi:noNamespaceSchemaLocation="http://sumo.dlr.de/xsd/routes_file.xsd">
    <vType id="car"/>
    <vehicle id="block_gneE2" type="car" depart="0.00">
        <route edges="gneE2"/>
        <stop edge="gneE2" duration="3600.00"/>
    </vehicle>
    <vehicle id="block_-gneE2" type="car" depart="0.00">
        <route edges="-gneE2"/>
        <stop edge="-gneE2" duration="3600.00"/>
    </vehicle>
    <vehicle id="block_gneE6" type="car" depart="0.00">
        <route edges="gneE6"/>
        <stop edge="gneE6" duration="3600.00"/>
    </vehicle>
    <vehicle id="block_-gneE6" type="car" depart="0.00">
        <route edges="-gneE6"/>
        <stop edge="-gneE6" duration="3600.00"/>
    </vehicle>
    <vehicle id="block_gneE13" type="car" depart="0.00">
        <route edges="gneE13"/>
        <stop edge="gneE13" duration="3600.00"/>
    </vehicle>
    <vehicle id="block_-gneE13" type="car" depart="0.00">
        <route edges="-gneE13"/>
        <stop edge="-gneE13" duration="3600.00"/>
    </vehicle>
</routes>
