<?xml version="1.0" encoding="UTF-8"?>

<!-- generated on 2023-07-07 11:43:39 by Eclipse SUMO netedit Version 1.15.0
<configuration xmlns:xsi="http://www.w3.org/2001/XMLSchema-instance" xsi:noNamespaceSchemaLocation="http://sumo.dlr.de/xsd/netconvertConfiguration.xsd">

    <input>
        <sumo-net-file value="D:\Workspace_Projects\RL-Route-Optimization\network_files\sunway.net.xml"/>
    </input>

    <output>
        <output-file value="D:\Workspace_Projects\RL-Route-Optimization\network_files\sunway.net.xml"/>
    </output>

    <processing>
        <geometry.min-radius.fix.railways value="false"/>
        <geometry.max-grade.fix value="false"/>
        <offset.disable-normalization value="true"/>
        <lefthand value="0"/>
    </processing>

    <junctions>
        <no-turnarounds value="true"/>
        <junctions.corner-detail value="5"/>
        <junctions.limit-turn-speed value="5.50"/>
        <rectangular-lane-cut value="0"/>
    </junctions>

    <pedestrian>
        <walkingareas value="0"/>
    </pedestrian>

</configuration>
-->

<net version="1.9" junctionCornerDetail="5" limitTurnSpeed="5.50" xmlns:xsi="http://www.w3.org/2001/XMLSchema-instance" xsi:noNamespaceSchemaLocation="http://sumo.dlr.de/xsd/net_file.xsd">

    <location netOffset="-788782.69,-338439.61" convBoundary="42.67,0.00,2920.40,2857.27" origBoundary="788782.69,338439.61,791703.09,341296.88" projParameter="!"/>

    <edge id=":1000000001_0" function="internal">
        <lane id=":1000000001_0_0" index="0" speed="6.06" length="0.99" shape="1176.76,749.24 1177.03,748.29"/>
    </edge>
    <edge id=":1000000001_3" function="internal">
        <lane id=":1000000001_3_0" index="0" speed="6.06" length="6.83" shape="1177.03,748.29 1177.16,747.85 1178.34,746.87 1180.32,746.31 1183.09,746.17"/>
    </edge>
    <edge id=":1000000001_1" function="internal">
        <lane id=":1000000001_1_0" index="0" speed="13.89" length="9.41" shape="1173.68,746.00 1183.09,746.17"/>
    </edge>
    <edge id=":1000000001_2" function="internal">
        <lane id=":1000000001_2_0" index="0" speed="6.13" length="7.79" shape="1173.68,746.00 1176.43,746.24 1178.39,746.86 1179.57,747.86 1179.96,749.24"/>
    </edge>
    <edge id=":1000000002_0" function="internal">
        <lane id=":1000000002_0_0" index="0" speed="13.89" length="9.42" shape="1188.67,738.89 1179.24,738.80"/>
    </edge>
    <edge id=":1000000002_1" function="internal">
        <lane id=":1000000002_1_0" index="0" speed="6.10" length="7.79" shape="1188.67,738.89 1185.91,738.69 1183.94,738.09 1182.76,737.11 1182.37,735.73"/>
    </edge>
    <edge id=":1000000002_2" function="internal">
        <lane id=":1000000002_2_0" index="0" speed="6.06" length="0.98" shape="1185.57,735.73 1185.30,736.67"/>
    </edge>
    <edge id=":1000000002_3" function="internal">
        <lane id=":1000000002_3_0" index="0" speed="6.06" length="6.83" shape="1185.30,736.67 1185.17,737.11 1183.99,738.09 1182.01,738.65 1179.24,738.80"/>
    </edge>
    <edge id=":102_0" function="internal">
        <lane id=":102_0_0" index="0" speed="3.65" length="4.67" shape="324.52,695.83 325.92,695.45 326.78,695.67 327.12,696.50 326.94,697.93"/>
    </edge>
    <edge id=":10311852155_0" function="internal">
        <lane id=":10311852155_0_0" index="0" speed="13.89" length="0.10" shape="2638.10,2705.79 2638.04,2705.75"/>
    </edge>
    <edge id=":10311852155_1" function="internal">
        <lane id=":10311852155_1_0" index="0" speed="13.89" length="0.33" shape="2639.76,2703.05 2640.03,2703.25"/>
    </edge>
    <edge id=":10311852158_0" function="internal">
        <lane id=":10311852158_0_0" index="0" speed="13.89" length="7.58" shape="2771.37,2796.11 2769.31,2795.22 2767.93,2794.52 2766.63,2793.70 2764.77,2792.44"/>
    </edge>
    <edge id=":10311852158_1" function="internal">
        <lane id=":10311852158_1_0" index="0" speed="13.89" length="6.95" shape="2766.41,2790.05 2768.20,2791.08 2769.44,2791.75 2770.72,2792.35 2772.62,2793.16"/>
    </edge>
    <edge id=":10311852158_2" function="internal">
        <lane id=":10311852158_2_0" index="0" speed="8.75" length="36.78" shape="2766.41,2790.05 2754.37,2783.35 2750.08,2781.51 2753.55,2784.54 2764.77,2792.44"/>
    </edge>
    <edge id=":105_0" function="internal">
        <lane id=":105_0_0" index="0" speed="3.65" length="4.67" shape="2091.96,679.60 2092.93,680.66 2093.12,681.54 2092.54,682.22 2091.18,682.70"/>
    </edge>
    <edge id=":106_0" function="internal">
        <lane id=":106_0_0" index="0" speed="3.65" length="4.67" shape="897.71,1544.48 898.52,1543.29 899.33,1542.90 900.12,1543.31 900.91,1544.52"/>
    </edge>
    <edge id=":10734244602_0" function="internal">
        <lane id=":10734244602_0_0" index="0" speed="8.77" length="8.90" shape="900.53,1635.54 898.94,1633.69 897.17,1632.36 895.22,1631.55 893.10,1631.26"/>
    </edge>
    <edge id=":10734244602_1" function="internal">
        <lane id=":10734244602_1_0" index="0" speed="11.77" length="8.99" shape="900.53,1635.54 898.87,1633.43 897.68,1631.91 896.98,1630.25 896.77,1627.68"/>
    </edge>
    <edge id=":10734244602_2" function="internal">
        <lane id=":10734244602_2_0" index="0" speed="13.89" length="10.45" shape="903.55,1631.40 893.10,1631.26"/>
    </edge>
    <edge id=":10734244602_3" function="internal">
        <lane id=":10734244602_3_0" index="0" speed="6.37" length="8.59" shape="903.55,1631.40 900.57,1631.13 898.45,1630.42 897.18,1629.27 896.77,1627.68"/>
    </edge>
    <edge id=":10734244602_4" function="internal">
        <lane id=":10734244602_4_0" index="0" speed="6.36" length="1.65" shape="899.97,1627.71 899.53,1629.30"/>
    </edge>
    <edge id=":10734244602_5" function="internal">
        <lane id=":10734244602_5_0" index="0" speed="3.65" length="1.34" shape="899.97,1627.71 899.22,1628.82"/>
    </edge>
    <edge id=":10734244602_6" function="internal">
        <lane id=":10734244602_6_0" index="0" speed="6.36" length="6.94" shape="899.53,1629.30 898.23,1630.42 896.09,1631.07 893.10,1631.26"/>
    </edge>
    <edge id=":10734244602_7" function="internal">
        <lane id=":10734244602_7_0" index="0" speed="3.65" length="3.33" shape="899.22,1628.82 899.16,1628.91 898.35,1629.30 897.56,1628.89 896.77,1627.68"/>
    </edge>
    <edge id=":10767796000_0" function="internal">
        <lane id=":10767796000_0_0" index="0" speed="13.89" length="8.50" shape="137.88,569.27 129.38,569.29"/>
    </edge>
    <edge id=":10767796000_1" function="internal">
        <lane id=":10767796000_1_0" index="0" speed="11.36" length="8.47" shape="137.88,569.27 135.48,569.04 133.95,568.31 132.56,567.12 130.60,565.51"/>
    </edge>
    <edge id=":108_0" function="internal">
        <lane id=":108_0_0" index="0" speed="3.65" length="4.67" shape="1064.13,2253.66 1062.72,2253.96 1061.87,2253.68 1061.58,2252.84 1061.85,2251.42"/>
    </edge>
    <edge id=":10845806303_0" function="internal">
        <lane id=":10845806303_0_0" index="0" speed="5.92" length="7.27" shape="1345.02,175.62 1342.57,175.86 1340.83,176.50 1339.78,177.54 1339.45,178.98"/>
    </edge>
    <edge id=":10845806303_1" function="internal">
        <lane id=":10845806303_1_0" index="0" speed="13.89" length="11.21" shape="1345.02,175.62 1333.81,175.80"/>
    </edge>
    <edge id=":10845806303_2" function="internal">
        <lane id=":10845806303_2_0" index="0" speed="13.89" length="9.34" shape="1340.75,169.80 1339.98,172.46 1339.59,174.32 1339.45,176.22 1339.45,178.98"/>
    </edge>
    <edge id=":10845806303_3" function="internal">
        <lane id=":10845806303_3_0" index="0" speed="7.66" length="4.56" shape="1340.75,169.80 1339.66,172.39 1338.55,173.74"/>
    </edge>
    <edge id=":10845806303_4" function="internal">
        <lane id=":10845806303_4_0" index="0" speed="7.66" length="5.32" shape="1338.55,173.74 1338.14,174.25 1336.19,175.39 1333.81,175.80"/>
    </edge>
    <edge id=":10845816005_0" function="internal">
        <lane id=":10845816005_0_0" index="0" speed="6.23" length="7.77" shape="1226.55,178.00 1224.25,178.31 1222.57,179.13 1221.53,180.47 1221.12,182.32"/>
    </edge>
    <edge id=":10845816005_1" function="internal">
        <lane id=":10845816005_1_0" index="0" speed="3.65" length="1.44" shape="1217.92,182.16 1218.78,181.00"/>
    </edge>
    <edge id=":10845816005_2" function="internal">
        <lane id=":10845816005_2_0" index="0" speed="3.65" length="3.23" shape="1218.78,181.00 1219.59,180.64 1220.37,181.08 1221.12,182.32"/>
    </edge>
    <edge id=":10845816010_0" function="internal">
        <lane id=":10845816010_0_0" index="0" speed="6.08" length="8.26" shape="1221.11,182.52 1221.37,184.57 1222.37,186.00 1224.13,186.81 1226.62,187.01"/>
    </edge>
    <edge id=":10845816010_1" function="internal">
        <lane id=":10845816010_1_0" index="0" speed="3.65" length="4.67" shape="1221.11,182.52 1220.25,183.68 1219.43,184.04 1218.65,183.60 1217.91,182.36"/>
    </edge>
    <edge id=":10845816012_0" function="internal">
        <lane id=":10845816012_0_0" index="0" speed="5.85" length="7.24" shape="1350.72,178.93 1350.40,177.45 1349.37,176.41 1347.65,175.80 1345.22,175.62"/>
    </edge>
    <edge id=":10845816012_1" function="internal">
        <lane id=":10845816012_1_0" index="0" speed="13.89" length="9.00" shape="1350.72,178.93 1350.78,169.93"/>
    </edge>
    <edge id=":1186818917_0" function="internal">
        <lane id=":1186818917_0_0" index="0" speed="13.89" length="10.60" shape="1723.38,1942.77 1723.36,1953.37"/>
    </edge>
    <edge id=":1186818917_1" function="internal">
        <lane id=":1186818917_1_0" index="0" speed="6.61" length="8.76" shape="1723.38,1942.77 1723.05,1945.05 1722.04,1946.75 1720.35,1947.87 1717.97,1948.41"/>
    </edge>
    <edge id=":1186818930_0" function="internal">
        <lane id=":1186818930_0_0" index="0" speed="13.89" length="10.62" shape="1723.20,1977.76 1723.14,1988.37"/>
    </edge>
    <edge id=":1186818930_1" function="internal">
        <lane id=":1186818930_1_0" index="0" speed="6.59" length="3.90" shape="1717.76,1982.75 1720.12,1983.26 1721.36,1984.08"/>
    </edge>
    <edge id=":1186818930_2" function="internal">
        <lane id=":1186818930_2_0" index="0" speed="6.59" length="4.84" shape="1721.36,1984.08 1721.81,1984.37 1722.82,1986.08 1723.14,1988.37"/>
    </edge>
    <edge id=":1186819601_0" function="internal">
        <lane id=":1186819601_0_0" index="0" speed="6.14" length="9.06" shape="1994.36,908.73 1991.81,908.57 1989.98,909.30 1988.86,910.93 1988.45,913.44"/>
    </edge>
    <edge id=":1186819601_1" function="internal">
        <lane id=":1186819601_1_0" index="0" speed="13.89" length="14.92" shape="1994.36,908.73 1990.68,908.08 1986.98,907.68 1983.26,907.53 1979.52,907.64"/>
    </edge>
    <edge id=":1186819601_2" function="internal">
        <lane id=":1186819601_2_0" index="0" speed="9.75" length="15.22" shape="1994.36,908.73 1991.01,907.32 1987.86,904.80 1985.38,901.66 1984.06,898.37"/>
    </edge>
    <edge id=":1186819601_3" function="internal">
        <lane id=":1186819601_3_0" index="0" speed="3.65" length="4.67" shape="1994.36,908.73 1993.35,907.70 1993.12,906.83 1993.68,906.13 1995.02,905.60"/>
    </edge>
    <edge id=":1186819601_4" function="internal">
        <lane id=":1186819601_4_0" index="0" speed="8.64" length="11.78" shape="1987.21,897.80 1988.13,900.69 1989.74,902.95 1992.04,904.59 1995.02,905.60"/>
    </edge>
    <edge id=":1186819601_5" function="internal">
        <lane id=":1186819601_5_0" index="0" speed="13.89" length="15.72" shape="1987.21,897.80 1987.79,901.62 1988.20,905.59 1988.42,909.58 1988.45,913.44"/>
    </edge>
    <edge id=":1186819601_6" function="internal">
        <lane id=":1186819601_6_0" index="0" speed="7.81" length="4.40" shape="1987.21,897.80 1987.36,901.88 1987.23,902.17"/>
    </edge>
    <edge id=":1186819601_7" function="internal">
        <lane id=":1186819601_7_0" index="0" speed="3.65" length="1.44" shape="1987.21,897.80 1986.63,899.12"/>
    </edge>
    <edge id=":1186819601_16" function="internal">
        <lane id=":1186819601_16_0" index="0" speed="7.81" length="10.24" shape="1987.23,902.17 1986.13,904.87 1983.51,906.80 1979.52,907.64"/>
    </edge>
    <edge id=":1186819601_17" function="internal">
        <lane id=":1186819601_17_0" index="0" speed="3.65" length="3.23" shape="1986.63,899.12 1985.92,899.66 1985.06,899.41 1984.06,898.37"/>
    </edge>
    <edge id=":1186819601_8" function="internal">
        <lane id=":1186819601_8_0" index="0" speed="6.27" length="9.04" shape="1979.31,904.45 1981.78,903.93 1983.39,902.74 1984.15,900.89 1984.06,898.37"/>
    </edge>
    <edge id=":1186819601_9" function="internal">
        <lane id=":1186819601_9_0" index="0" speed="13.89" length="15.79" shape="1979.31,904.45 1983.18,904.35 1987.20,904.52 1991.20,904.94 1995.02,905.60"/>
    </edge>
    <edge id=":1186819601_10" function="internal">
        <lane id=":1186819601_10_0" index="0" speed="7.95" length="14.91" shape="1979.31,904.45 1983.37,904.78 1986.25,906.39 1987.94,909.28 1988.45,913.44"/>
    </edge>
    <edge id=":1186819601_11" function="internal">
        <lane id=":1186819601_11_0" index="0" speed="3.65" length="4.67" shape="1979.31,904.45 1980.56,905.17 1981.01,905.94 1980.67,906.77 1979.52,907.64"/>
    </edge>
    <edge id=":1186819601_12" function="internal">
        <lane id=":1186819601_12_0" index="0" speed="6.45" length="9.43" shape="1985.25,913.39 1984.93,910.73 1983.87,908.89 1982.07,907.86 1979.52,907.64"/>
    </edge>
    <edge id=":1186819601_13" function="internal">
        <lane id=":1186819601_13_0" index="0" speed="13.89" length="15.09" shape="1985.25,913.39 1985.23,909.62 1985.02,905.85 1984.63,902.09 1984.06,898.37"/>
    </edge>
    <edge id=":1186819601_14" function="internal">
        <lane id=":1186819601_14_0" index="0" speed="7.70" length="4.07" shape="1985.25,913.39 1985.90,909.37"/>
    </edge>
    <edge id=":1186819601_15" function="internal">
        <lane id=":1186819601_15_0" index="0" speed="3.65" length="1.44" shape="1985.25,913.39 1986.07,912.20"/>
    </edge>
    <edge id=":1186819601_18" function="internal">
        <lane id=":1186819601_18_0" index="0" speed="7.70" length="10.89" shape="1985.90,909.37 1985.92,909.22 1987.78,906.54 1990.81,905.33 1995.02,905.60"/>
    </edge>
    <edge id=":1186819601_19" function="internal">
        <lane id=":1186819601_19_0" index="0" speed="3.65" length="3.23" shape="1986.07,912.20 1986.88,911.82 1987.67,912.23 1988.45,913.44"/>
    </edge>
    <edge id=":1186819602_0" function="internal">
        <lane id=":1186819602_0_0" index="0" speed="7.44" length="10.15" shape="1995.40,1326.71 1992.57,1327.62 1990.54,1329.03 1989.31,1330.93 1988.88,1333.33"/>
    </edge>
    <edge id=":1186819602_1" function="internal">
        <lane id=":1186819602_1_0" index="0" speed="7.70" length="14.99" shape="1995.40,1326.71 1991.18,1326.96 1988.15,1325.73 1986.32,1323.03 1985.68,1318.85"/>
    </edge>
    <edge id=":1186819602_2" function="internal">
        <lane id=":1186819602_2_0" index="0" speed="3.65" length="4.67" shape="1995.40,1326.71 1994.06,1326.17 1993.51,1325.46 1993.74,1324.60 1994.76,1323.57"/>
    </edge>
    <edge id=":1186819602_3" function="internal">
        <lane id=":1186819602_3_0" index="0" speed="6.13" length="9.06" shape="1988.88,1318.83 1989.27,1321.35 1990.38,1322.99 1992.21,1323.73 1994.76,1323.57"/>
    </edge>
    <edge id=":1186819602_4" function="internal">
        <lane id=":1186819602_4_0" index="0" speed="13.89" length="14.50" shape="1988.88,1318.83 1988.88,1333.33"/>
    </edge>
    <edge id=":1186819602_5" function="internal">
        <lane id=":1186819602_5_0" index="0" speed="3.65" length="1.44" shape="1988.88,1318.83 1988.09,1320.03"/>
    </edge>
    <edge id=":1186819602_9" function="internal">
        <lane id=":1186819602_9_0" index="0" speed="3.65" length="3.23" shape="1988.09,1320.03 1987.30,1320.44 1986.49,1320.05 1985.68,1318.85"/>
    </edge>
    <edge id=":1186819602_6" function="internal">
        <lane id=":1186819602_6_0" index="0" speed="13.89" length="14.44" shape="1985.68,1333.29 1985.68,1318.85"/>
    </edge>
    <edge id=":1186819602_7" function="internal">
        <lane id=":1186819602_7_0" index="0" speed="8.80" length="3.71" shape="1985.68,1333.29 1986.28,1329.74 1986.33,1329.65"/>
    </edge>
    <edge id=":1186819602_8" function="internal">
        <lane id=":1186819602_8_0" index="0" speed="3.65" length="1.44" shape="1985.68,1333.29 1986.49,1332.10"/>
    </edge>
    <edge id=":1186819602_10" function="internal">
        <lane id=":1186819602_10_0" index="0" speed="8.80" length="10.83" shape="1986.33,1329.65 1987.99,1326.93 1990.82,1324.87 1994.76,1323.57"/>
    </edge>
    <edge id=":1186819602_11" function="internal">
        <lane id=":1186819602_11_0" index="0" speed="3.65" length="3.23" shape="1986.49,1332.10 1987.30,1331.71 1988.09,1332.12 1988.88,1333.33"/>
    </edge>
    <edge id=":1186819603_0" function="internal">
        <lane id=":1186819603_0_0" index="0" speed="6.51" length="8.99" shape="1984.00,990.51 1983.64,988.08 1982.59,986.33 1980.85,985.29 1978.41,984.93"/>
    </edge>
    <edge id=":1186819603_1" function="internal">
        <lane id=":1186819603_1_0" index="0" speed="13.89" length="14.32" shape="1984.00,990.51 1984.10,976.20"/>
    </edge>
    <edge id=":1186819603_2" function="internal">
        <lane id=":1186819603_2_0" index="0" speed="3.65" length="1.44" shape="1984.00,990.51 1984.79,989.31"/>
    </edge>
    <edge id=":1186819603_9" function="internal">
        <lane id=":1186819603_9_0" index="0" speed="3.65" length="3.23" shape="1984.79,989.31 1985.59,988.91 1986.39,989.30 1987.20,990.50"/>
    </edge>
    <edge id=":1186819603_3" function="internal">
        <lane id=":1186819603_3_0" index="0" speed="13.89" length="14.25" shape="1987.30,976.25 1987.20,990.50"/>
    </edge>
    <edge id=":1186819603_4" function="internal">
        <lane id=":1186819603_4_0" index="0" speed="8.03" length="3.96" shape="1987.30,976.25 1986.68,980.06 1986.63,980.15"/>
    </edge>
    <edge id=":1186819603_5" function="internal">
        <lane id=":1186819603_5_0" index="0" speed="3.65" length="1.44" shape="1987.30,976.25 1986.48,977.44"/>
    </edge>
    <edge id=":1186819603_10" function="internal">
        <lane id=":1186819603_10_0" index="0" speed="8.03" length="10.16" shape="1986.63,980.15 1985.00,982.77 1982.24,984.40 1978.41,984.93"/>
    </edge>
    <edge id=":1186819603_11" function="internal">
        <lane id=":1186819603_11_0" index="0" speed="3.65" length="3.23" shape="1986.48,977.44 1985.67,977.82 1984.88,977.41 1984.10,976.20"/>
    </edge>
    <edge id=":1186819603_6" function="internal">
        <lane id=":1186819603_6_0" index="0" speed="6.54" length="9.02" shape="1978.42,981.73 1980.87,981.39 1982.63,980.36 1983.71,978.62 1984.10,976.20"/>
    </edge>
    <edge id=":1186819603_7" function="internal">
        <lane id=":1186819603_7_0" index="0" speed="8.00" length="14.13" shape="1978.42,981.73 1982.25,982.29 1984.99,983.94 1986.64,986.67 1987.20,990.50"/>
    </edge>
    <edge id=":1186819603_8" function="internal">
        <lane id=":1186819603_8_0" index="0" speed="3.65" length="4.67" shape="1978.42,981.73 1979.62,982.54 1980.01,983.34 1979.61,984.14 1978.41,984.93"/>
    </edge>
    <edge id=":1186819607_0" function="internal">
        <lane id=":1186819607_0_0" index="0" speed="6.13" length="0.96" shape="1743.52,982.85 1742.60,982.57"/>
    </edge>
    <edge id=":1186819607_1" function="internal">
        <lane id=":1186819607_1_0" index="0" speed="3.65" length="0.87" shape="1743.52,982.85 1742.80,982.36"/>
    </edge>
    <edge id=":1186819607_4" function="internal">
        <lane id=":1186819607_4_0" index="0" speed="6.13" length="6.80" shape="1742.60,982.57 1742.17,982.44 1741.19,981.25 1740.60,979.28 1740.40,976.54"/>
    </edge>
    <edge id=":1186819607_5" function="internal">
        <lane id=":1186819607_5_0" index="0" speed="3.65" length="3.80" shape="1742.80,982.36 1742.33,982.04 1741.95,981.23 1742.36,980.44 1743.57,979.65"/>
    </edge>
    <edge id=":1186819607_2" function="internal">
        <lane id=":1186819607_2_0" index="0" speed="13.89" length="9.38" shape="1740.38,985.92 1740.40,976.54"/>
    </edge>
    <edge id=":1186819607_3" function="internal">
        <lane id=":1186819607_3_0" index="0" speed="6.07" length="7.78" shape="1740.38,985.92 1740.60,983.16 1741.21,981.20 1742.20,980.03 1743.57,979.65"/>
    </edge>
    <edge id=":1186819608_0" function="internal">
        <lane id=":1186819608_0_0" index="0" speed="13.89" length="14.51" shape="1984.05,1508.49 1984.03,1493.98"/>
    </edge>
    <edge id=":1186819608_1" function="internal">
        <lane id=":1186819608_1_0" index="0" speed="8.05" length="4.12" shape="1984.05,1508.49 1984.56,1504.65 1984.68,1504.43"/>
    </edge>
    <edge id=":1186819608_2" function="internal">
        <lane id=":1186819608_2_0" index="0" speed="3.65" length="1.44" shape="1984.05,1508.49 1984.83,1507.28"/>
    </edge>
    <edge id=":1186819608_9" function="internal">
        <lane id=":1186819608_9_0" index="0" speed="8.05" length="10.14" shape="1984.68,1504.43 1986.19,1501.87 1988.95,1500.17 1992.83,1499.54"/>
    </edge>
    <edge id=":1186819608_10" function="internal">
        <lane id=":1186819608_10_0" index="0" speed="3.65" length="3.23" shape="1984.83,1507.28 1985.63,1506.87 1986.43,1507.26 1987.25,1508.45"/>
    </edge>
    <edge id=":1186819608_3" function="internal">
        <lane id=":1186819608_3_0" index="0" speed="6.57" length="9.14" shape="1992.90,1502.74 1990.40,1503.14 1988.63,1504.23 1987.57,1506.00 1987.25,1508.45"/>
    </edge>
    <edge id=":1186819608_4" function="internal">
        <lane id=":1186819608_4_0" index="0" speed="7.94" length="14.32" shape="1992.90,1502.74 1988.99,1502.26 1986.21,1500.65 1984.55,1497.89 1984.03,1493.98"/>
    </edge>
    <edge id=":1186819608_5" function="internal">
        <lane id=":1186819608_5_0" index="0" speed="3.65" length="4.67" shape="1992.90,1502.74 1991.68,1501.96 1991.26,1501.17 1991.65,1500.37 1992.83,1499.54"/>
    </edge>
    <edge id=":1186819608_6" function="internal">
        <lane id=":1186819608_6_0" index="0" speed="6.44" length="9.03" shape="1987.23,1494.01 1987.56,1496.48 1988.60,1498.22 1990.36,1499.24 1992.83,1499.54"/>
    </edge>
    <edge id=":1186819608_7" function="internal">
        <lane id=":1186819608_7_0" index="0" speed="13.89" length="14.44" shape="1987.23,1494.01 1987.25,1508.45"/>
    </edge>
    <edge id=":1186819608_8" function="internal">
        <lane id=":1186819608_8_0" index="0" speed="3.65" length="1.44" shape="1987.23,1494.01 1986.42,1495.20"/>
    </edge>
    <edge id=":1186819608_11" function="internal">
        <lane id=":1186819608_11_0" index="0" speed="3.65" length="3.23" shape="1986.42,1495.20 1985.62,1495.60 1984.82,1495.19 1984.03,1493.98"/>
    </edge>
    <edge id=":1192884309_0" function="internal">
        <lane id=":1192884309_0_0" index="0" speed="13.89" length="11.14" shape="493.92,1597.30 482.90,1595.60"/>
    </edge>
    <edge id=":1192884309_1" function="internal">
        <lane id=":1192884309_1_0" index="0" speed="6.54" length="8.96" shape="487.79,1601.80 487.69,1599.33 486.84,1597.48 485.25,1596.23 482.90,1595.60"/>
    </edge>
    <edge id=":1192884325_0" function="internal">
        <lane id=":1192884325_0_0" index="0" speed="6.62" length="9.20" shape="248.67,1645.55 248.26,1643.10 247.15,1641.34 245.34,1640.28 242.83,1639.93"/>
    </edge>
    <edge id=":1192884325_1" function="internal">
        <lane id=":1192884325_1_0" index="0" speed="13.89" length="14.46" shape="248.67,1645.55 248.35,1631.10"/>
    </edge>
    <edge id=":1192884325_2" function="internal">
        <lane id=":1192884325_2_0" index="0" speed="8.02" length="4.06" shape="248.67,1645.55 249.14,1641.70 249.22,1641.55"/>
    </edge>
    <edge id=":1192884325_3" function="internal">
        <lane id=":1192884325_3_0" index="0" speed="3.65" length="1.44" shape="248.67,1645.55 249.45,1644.34"/>
    </edge>
    <edge id=":1192884325_16" function="internal">
        <lane id=":1192884325_16_0" index="0" speed="8.02" length="10.14" shape="249.22,1641.55 250.73,1638.91 253.44,1637.19 257.28,1636.53"/>
    </edge>
    <edge id=":1192884325_17" function="internal">
        <lane id=":1192884325_17_0" index="0" speed="3.65" length="3.23" shape="249.45,1644.34 250.24,1643.92 251.04,1644.30 251.87,1645.48"/>
    </edge>
    <edge id=":1192884325_4" function="internal">
        <lane id=":1192884325_4_0" index="0" speed="6.53" length="9.06" shape="257.37,1639.73 254.92,1640.15 253.18,1641.25 252.17,1643.03 251.87,1645.48"/>
    </edge>
    <edge id=":1192884325_5" function="internal">
        <lane id=":1192884325_5_0" index="0" speed="13.89" length="14.54" shape="257.37,1639.73 242.83,1639.93"/>
    </edge>
    <edge id=":1192884325_6" function="internal">
        <lane id=":1192884325_6_0" index="0" speed="8.00" length="14.26" shape="257.37,1639.73 253.50,1639.29 250.70,1637.70 248.99,1634.97 248.35,1631.10"/>
    </edge>
    <edge id=":1192884325_7" function="internal">
        <lane id=":1192884325_7_0" index="0" speed="3.65" length="4.67" shape="257.37,1639.73 256.15,1638.97 255.73,1638.18 256.11,1637.37 257.28,1636.53"/>
    </edge>
    <edge id=":1192884325_8" function="internal">
        <lane id=":1192884325_8_0" index="0" speed="6.51" length="9.08" shape="251.55,1631.03 251.95,1633.50 253.04,1635.24 254.82,1636.25 257.28,1636.53"/>
    </edge>
    <edge id=":1192884325_9" function="internal">
        <lane id=":1192884325_9_0" index="0" speed="13.89" length="14.46" shape="251.55,1631.03 251.87,1645.48"/>
    </edge>
    <edge id=":1192884325_10" function="internal">
        <lane id=":1192884325_10_0" index="0" speed="7.96" length="4.08" shape="251.55,1631.03 251.08,1634.93 251.00,1635.06"/>
    </edge>
    <edge id=":1192884325_11" function="internal">
        <lane id=":1192884325_11_0" index="0" speed="3.65" length="1.44" shape="251.55,1631.03 250.77,1632.25"/>
    </edge>
    <edge id=":1192884325_18" function="internal">
        <lane id=":1192884325_18_0" index="0" speed="7.96" length="10.20" shape="251.00,1635.06 249.47,1637.71 246.72,1639.38 242.83,1639.93"/>
    </edge>
    <edge id=":1192884325_19" function="internal">
        <lane id=":1192884325_19_0" index="0" speed="3.65" length="3.23" shape="250.77,1632.25 249.98,1632.66 249.17,1632.28 248.35,1631.10"/>
    </edge>
    <edge id=":1192884325_12" function="internal">
        <lane id=":1192884325_12_0" index="0" speed="6.46" length="9.03" shape="242.84,1636.73 245.29,1636.38 247.03,1635.33 248.05,1633.57 248.35,1631.10"/>
    </edge>
    <edge id=":1192884325_13" function="internal">
        <lane id=":1192884325_13_0" index="0" speed="13.89" length="14.45" shape="242.84,1636.73 257.28,1636.53"/>
    </edge>
    <edge id=":1192884325_14" function="internal">
        <lane id=":1192884325_14_0" index="0" speed="8.09" length="14.27" shape="242.84,1636.73 246.71,1637.28 249.51,1638.92 251.23,1641.66 251.87,1645.48"/>
    </edge>
    <edge id=":1192884325_15" function="internal">
        <lane id=":1192884325_15_0" index="0" speed="3.65" length="4.67" shape="242.84,1636.73 244.03,1637.53 244.43,1638.33 244.03,1639.13 242.83,1639.93"/>
    </edge>
    <edge id=":1197874333_0" function="internal">
        <lane id=":1197874333_0_0" index="0" speed="3.65" length="4.67" shape="1882.22,1056.22 1881.02,1055.43 1880.61,1054.63 1881.00,1053.83 1882.20,1053.02"/>
    </edge>
    <edge id=":1197874335_0" function="internal">
        <lane id=":1197874335_0_0" index="0" speed="6.11" length="9.92" shape="2263.75,1501.11 2266.59,1501.55 2268.28,1502.78 2268.81,1504.80 2268.18,1507.60"/>
    </edge>
    <edge id=":1197874335_1" function="internal">
        <lane id=":1197874335_1_0" index="0" speed="3.92" length="3.31" shape="2265.18,1506.47 2265.39,1505.54 2265.22,1504.86 2264.65,1504.46 2263.71,1504.31"/>
    </edge>
    <edge id=":1197874337_0" function="internal">
        <lane id=":1197874337_0_0" index="0" speed="6.46" length="4.16" shape="1744.21,1220.83 1741.75,1220.51 1740.31,1219.66"/>
    </edge>
    <edge id=":1197874337_2" function="internal">
        <lane id=":1197874337_2_0" index="0" speed="6.46" length="4.88" shape="1740.31,1219.66 1740.00,1219.47 1738.95,1217.73 1738.62,1215.27"/>
    </edge>
    <edge id=":1197874337_1" function="internal">
        <lane id=":1197874337_1_0" index="0" speed="13.89" length="11.19" shape="1738.51,1226.46 1738.62,1215.27"/>
    </edge>
    <edge id=":1197874339_0" function="internal">
        <lane id=":1197874339_0_0" index="0" speed="3.65" length="4.67" shape="1769.36,1054.49 1768.16,1053.70 1767.75,1052.90 1768.14,1052.10 1769.34,1051.29"/>
    </edge>
    <edge id=":1197874341_0" function="internal">
        <lane id=":1197874341_0_0" index="0" speed="3.65" length="4.67" shape="1877.71,1592.46 1876.52,1591.65 1876.13,1590.84 1876.54,1590.05 1877.75,1589.26"/>
    </edge>
    <edge id=":1197874345_0" function="internal">
        <lane id=":1197874345_0_0" index="0" speed="3.65" length="4.67" shape="1763.40,1451.67 1762.20,1450.87 1761.80,1450.07 1762.20,1449.27 1763.40,1448.47"/>
    </edge>
    <edge id=":1197874347_0" function="internal">
        <lane id=":1197874347_0_0" index="0" speed="6.49" length="9.05" shape="2002.60,1508.16 2002.22,1505.70 2001.14,1503.97 1999.38,1502.95 1996.91,1502.65"/>
    </edge>
    <edge id=":1197874347_1" function="internal">
        <lane id=":1197874347_1_0" index="0" speed="7.97" length="14.26" shape="2002.60,1508.16 2003.11,1504.28 2004.74,1501.51 2007.49,1499.86 2011.37,1499.33"/>
    </edge>
    <edge id=":1197874347_2" function="internal">
        <lane id=":1197874347_2_0" index="0" speed="3.65" length="4.67" shape="2002.60,1508.16 2003.38,1506.95 2004.18,1506.54 2004.98,1506.93 2005.80,1508.13"/>
    </edge>
    <edge id=":1197874347_3" function="internal">